<?xml version="1.0" encoding="UTF-8"?>
<module type="PYTHON_MODULE" version="4">
  <component name="NewModuleRootManager">
    <content url="file://$USER_HOME$/Documents/AST/Rezimi/PSSE 2023/add_rates.py" />
    <orderEntry type="inheritedJdk" />
    <orderEntry type="sourceFolder" forTests="false" />
  </component>
</module>